
     RDKit          3D

  6  5  0  0  0  0  0  0  0  0999 V2000
    0.6302    0.1078   -0.1344 C   0  0  0  0  0  0  0  0  0  0  0  0
   -0.6383   -0.1167    0.1337 C   0  0  0  0  0  0  0  0  0  0  0  0
    1.2581   -0.6416   -0.5438 H   0  0  0  0  0  0  0  0  0  0  0  0
    1.0541    1.0829    0.0653 H   0  0  0  0  0  0  0  0  0  0  0  0
   -1.0523   -1.0857   -0.0667 H   0  0  0  0  0  0  0  0  0  0  0  0
   -1.2518    0.6534    0.5459 H   0  0  0  0  0  0  0  0  0  0  0  0
  1  2  2  3
  1  3  1  0
  1  4  1  0
  2  5  1  0
  2  6  1  0
M  END

