    59
 geometry
 C                    -1.17220702    -6.15842158     4.28740767
 C                    -1.77993476    -5.66312661     3.13227446
 C                    -1.12282660    -4.71933571     2.34479074
 C                     0.15545761    -4.25067701     2.69406653
 C                     0.75522132    -4.76041445     3.85848197
 C                     0.09817735    -5.70408973     4.64626209
 C                     0.85325040    -3.24345496     1.85536167
 C                     1.67258746    -2.25344373     2.42981188
 C                     2.32578613    -1.31031160     1.64125227
 C                     2.19223485    -1.30253915     0.24245729
 C                     1.38149700    -2.29289287    -0.33325862
 C                     0.72824537    -3.24219146     0.45644282
 C                     2.86948064    -0.19400869    -0.55863623
 C                     2.08276660     1.13023035    -0.41159445
 C                     0.68110582     0.95663987    -1.03752342
 C                     0.75459596     0.54283369    -2.50476181
 C                     1.87636393    -0.18073873    -2.95000390
 C                     3.07602185    -0.47179688    -2.06029118
 C                    -0.30949296     0.78993532    -3.38196049
 C                    -0.26639107     0.35169393    -4.70192580
 C                     0.84710864    -0.35945985    -5.15339319
 C                     1.89928509    -0.62208198    -4.28082248
 C                    -0.20883384     2.14184678    -0.74759170
 C                     0.12084743     3.46142737    -1.35245991
 O                    -0.70725737     4.52359224    -1.02423711
 C                    -1.77528759     4.43610714    -0.18143561
 C                    -2.12733714     3.21703429     0.43616176
 C                    -1.25710511     2.13912128     0.09562836
 C                    -2.51701582     5.59341435     0.05010230
 C                    -3.61619209     5.53005145     0.89907059
 C                    -3.98778672     4.32193965     1.51225030
 C                    -3.25346143     3.16915101     1.28252395
 O                     1.06051740     3.65854140    -2.07265562
 O                    -1.59748538     0.84245993     0.76599612
 H                    -1.68251736    -6.89559563     4.90042348
 H                    -2.76885854    -6.00958255     2.84515788
 H                    -1.61527286    -4.32963943     1.45749830
 H                     1.75705321    -4.44135741     4.13170680
 H                     0.58478100    -6.09356577     5.53594322
 H                     1.79373163    -2.21986390     3.50887082
 H                     2.96109913    -0.56789809     2.12123053
 H                     1.26781410    -2.34422278    -1.41236568
 H                     0.14154234    -4.01714293    -0.02823181
 H                     3.85734073    -0.02875927    -0.11213454
 H                     1.98854181     1.40351156     0.64603947
 H                     2.60444322     1.94346771    -0.92472120
 H                     0.26353107     0.06441881    -0.51746302
 H                     3.40505074    -1.50672562    -2.20988409
 H                     3.90948643     0.15619810    -2.40312294
 H                    -1.18431962     1.33527363    -3.03458863
 H                    -1.09457273     0.56201623    -5.37184925
 H                     0.89284521    -0.71118476    -6.17976144
 H                     2.76379591    -1.17958114    -4.63364073
 H                    -2.22057655     6.51424935    -0.44006693
 H                    -4.19836939     6.42739074     1.08275781
 H                    -4.85679727     4.28687909     2.16046723
 H                    -3.56793040     2.23211771     1.73360789
 H                    -0.96515496     0.13899077     0.44391911
 H                    -1.53847087     0.90642242     1.74646373
